Circuit: * D:\OAMK\Elektroniikan perusteet\transistorivahvistin.asc

Direct Newton iteration for .op point succeeded.

Date: Wed Oct 04 09:43:54 2017
Total elapsed time: 0.173 seconds.

tnom = 27
temp = 27
method = trap
totiter = 6
traniter = 0
tranpoints = 0
accept = 0
rejected = 0
matrix size = 8
fillins = 0
solver = Normal
Matrix Compiler1:      20 opcodes
Matrix Compiler2: 594 bytes object code size
